1066
1 22.200000 22.200000 22.200000
Si 9.328486 12.285952 11.067700
O(c) 7.682375 12.658918 10.997788
O(c) 9.353451 13.621966 12.127371
O(c) 10.026192 11.627654 12.466650
O(c) 9.606861 11.244650 9.756459
B 6.643298 13.752720 11.074823
Si 8.772004 15.121845 12.679904
B 11.012993 11.721939 13.613481
B 10.445938 10.813555 8.562127
O(c) 10.161056 10.457882 7.111344
O(t) 11.803240 10.204232 8.707725
Li 19.035292 10.339513 8.593980
O(t) 7.803642 16.352060 13.268203
Li 11.408319 14.416708 13.745900
O(c) 8.531271 15.581953 11.060358
O(t) 9.278073 14.886149 14.263675
Li 19.201805 14.256683 12.088146
O(t) 12.097528 12.196538 12.704747
Li 14.463741 11.905381 16.248243
O(c) 10.379966 12.464789 14.770382
O(t) 6.236436 14.390903 9.795136
Li 6.713908 10.593642 10.261971
O(t) 6.303449 13.752481 12.523692
Li 7.026459 14.195507 14.648606
Si 9.113657 12.564259 15.895475
B 7.825883 16.371850 9.970428
Si 10.576783 9.521802 5.759121
O(c) 9.263842 13.960851 16.844368
O(t) 9.976626 11.699509 17.044404
Li 8.139108 11.889320 18.607369
O(t) 7.464709 12.296247 15.998588
Li 6.163394 10.117211 15.496814
B 9.565091 14.524573 18.220047
O(c) 9.958391 10.523899 4.535131
O(c) 9.554403 8.169534 5.636465
O(t) 12.140204 9.220634 6.281576
Li 14.095493 8.579575 7.633080
O(t) 7.259688 17.754902 9.948920
Li 14.153429 18.760501 10.286690
O(t) 7.904605 15.894096 8.556084
Li 9.481670 16.860676 6.762550
O(t) 11.010771 14.166264 18.299626
Li 14.837250 16.733546 16.909046
O(t) 8.524300 15.584425 18.058722
Li 12.054981 12.111871 4.251650
Si 9.243079 6.686469 4.856368
B 9.237733 10.659650 3.208213
O(c) 8.602716 5.705183 3.620992
O(c) 7.610809 7.146146 4.977641
O(c) 10.922380 6.589424 4.720156
O(t) 10.294724 11.320221 2.391151
Li 11.351073 13.280082 1.916852
O(t) 7.796000 11.003615 3.038770
Li 11.417452 15.882466 6.069856
Si 12.473567 6.981261 5.249365
Si 6.274867 7.964608 4.324447
Si 8.035967 4.273808 2.893986
O(c) 14.020014 7.560777 5.597913
O(t) 12.983264 5.647756 4.374764
Li 10.000519 2.057074 0.646109
O(c) 12.019922 6.850870 6.873143
Si 12.618637 6.695925 8.449775
O(c) 7.868733 2.576541 2.920918
O(t) 9.327725 4.317993 1.826780
Li 11.236790 4.470840 3.354080
O(c) 7.054029 5.177545 1.850393
Si 15.617776 7.168715 5.998775
O(t) 6.696309 8.851969 2.966928
Li 3.411661 6.528146 4.671832
O(c) 4.957587 8.846041 4.920835
O(t) 5.559546 6.710146 3.478662
Li 4.356721 8.852404 8.874596
B 3.858348 8.959503 5.955832
Si 6.886340 1.212565 2.615496
Si 6.420217 5.316063 0.288039
O(c) 17.190977 7.179766 5.327696
O(t) 15.484419 5.730624 5.142371
Li 21.998156 5.849070 1.243806
O(c) 16.444446 7.585489 7.430379
B 16.906219 8.573047 8.488228
O(t) 4.133879 7.651620 6.616864
Li 0.983828 10.654174 7.776518
O(t) 3.329485 10.076070 6.788919
Li 9.739944 6.196394 7.136071
O(t) 7.318863 1.482694 1.015189
Li 1.330125 2.310200 3.830060
O(t) 5.559135 2.194884 2.316835
Li 6.259015 6.922965 7.226412
O(c) 7.313186 21.973574 3.440409
O(t) 6.128412 4.486539 21.063284
Li 6.884323 0.556300 20.876705
O(t) 7.920303 5.861005 21.973372
Li 8.916463 18.361797 0.518830
O(t) 4.838320 5.657476 0.731093
Li 8.924414 7.587621 17.321304
Si 7.526853 20.275894 3.512821
O(c) 11.817688 7.597221 9.653884
O(t) 14.215910 6.336513 8.060407
Li 16.207023 1.850019 9.822580
O(t) 11.325055 5.670487 8.766376
Li 12.937298 7.628301 11.840576
O(c) 15.925142 9.252117 9.418895
O(t) 18.114977 8.506471 9.369423
Li 14.507420 12.680886 12.092109
B 18.653776 6.749971 5.398766
O(t) 18.626939 5.259601 5.511394
Li 18.738873 5.829416 7.944100
O(t) 20.128073 6.957567 5.192457
Li 19.375103 8.440944 3.533333
B 10.546710 7.932500 10.417233
Si 14.970133 9.061443 10.804298
O(c) 6.524842 19.742974 4.764816
O(t) 9.133907 20.594597 3.871024
Li 7.824385 20.083028 9.923034
O(c) 7.904997 18.611264 3.306288
Si 7.556831 16.927665 3.377433
O(t) 15.884520 8.024977 11.744215
Li 11.412382 10.056677 11.334042
O(t) 13.649085 9.370292 9.823493
Li 5.745334 11.117265 4.224392
O(t) 14.043203 9.921925 11.901186
Li 7.677811 9.780303 5.368507
Si 6.051683 19.947028 6.372355
O(c) 9.339496 8.783743 10.052672
O(t) 10.572391 7.969627 11.906457
Li 11.835907 5.960970 12.988701
Si 8.093185 9.090477 8.934175
O(c) 5.312171 18.527471 6.909820
O(t) 5.737498 21.586265 6.319836
Li 3.795914 4.360386 10.517826
O(t) 6.875277 20.047123 7.823408
Li 7.380189 17.770151 7.328593
O(t) 7.194953 16.630991 4.982397
Li 9.016892 15.002636 5.296282
O(c) 8.657445 16.829289 2.098051
O(c) 6.801763 15.545744 2.686401
O(t) 8.256387 8.056049 7.627409
Li 8.856604 6.538293 9.598577
O(t) 7.939353 10.282855 7.756812
Li 8.821139 12.483521 7.774005
O(t) 6.769500 8.126349 9.299546
Li 3.921559 9.510604 14.621723
Si 6.265332 13.915505 2.625308
Si 9.544896 15.868532 1.028161
Si 4.577214 17.054093 6.551399
O(c) 6.525400 13.017680 1.207867
O(c) 4.858300 12.964869 2.847557
O(t) 6.855727 13.589198 4.162361
Li 8.580676 12.341785 5.425711
Si 3.961704 11.509140 2.759358
O(c) 3.395950 15.911980 6.927680
O(t) 5.691744 15.804896 6.507746
Li 4.759319 13.489707 5.654090
O(t) 3.649557 17.966807 5.501992
Li 6.766494 16.952093 0.710619
B 5.962799 12.386759 22.147559
O(c) 10.226683 15.333184 2.485064
O(c) 11.144048 15.750918 0.492458
O(t) 8.260070 14.898971 0.561250
Li 12.150581 17.624937 9.993792
Si 12.202773 14.832778 21.738916
B 2.629990 14.717416 6.413634
O(t) 7.036287 11.920505 21.221352
Li 8.978612 12.464030 0.717086
O(c) 4.998653 11.239572 21.930115
Si 11.264845 15.650795 3.792169
O(t) 12.436786 15.929994 2.625718
Li 14.949628 12.507734 4.660316
O(t) 10.296427 17.002160 4.006720
Li 13.744975 17.748208 1.548714
O(t) 10.796108 14.090046 4.184876
Li 13.330806 13.949918 3.375266
O(c) 13.883152 15.046656 21.781782
O(t) 11.669616 15.347702 20.237662
Li 8.434208 13.512369 20.423111
O(t) 10.917338 13.770383 21.897652
Li 12.699025 11.570887 6.698185
O(t) 1.647542 14.187909 7.397971
Li 1.160243 15.989132 8.921938
O(t) 2.756430 14.778544 4.930455
Li 0.817048 11.719442 2.978780
Si 4.603267 9.641102 0.151027
O(c) 4.640433 10.369410 1.691578
O(t) 3.661201 8.299315 21.980497
Li 2.817423 16.882385 3.831118
O(t) 5.671492 9.125273 21.163728
Li 6.319206 7.660558 0.950751
Si 15.370455 15.092705 20.961580
O(c) 3.416136 10.031813 3.431519
O(t) 3.147400 12.049770 4.120506
Li 7.227555 10.261968 0.787795
Si 2.345474 8.702470 3.439744
O(c) 16.687022 14.364295 21.770729
O(c) 14.699845 16.174323 19.823422
O(t) 14.960763 13.573586 20.386973
Li 12.627897 12.998021 20.279214
O(t) 1.856672 7.145199 3.027342
Li 2.640989 12.277942 6.400603
O(t) 0.911352 9.176822 2.714595
Li 4.030218 7.778703 2.061253
O(t) 1.650205 8.401123 4.933819
Li 1.187553 10.652005 5.246983
B 17.836378 14.537443 0.568908
O(c) 18.708747 15.738544 0.959290
O(t) 18.198488 13.104068 0.740938
Li 18.917860 11.026892 21.833864
Si 14.305465 17.709895 19.188852
B 19.380530 17.066214 0.575195
O(c) 15.058505 18.800287 18.102544
O(t) 14.335845 18.569282 20.625256
Li 20.102995 21.386151 19.295890
O(c) 12.631736 17.840910 19.497307
Si 11.395253 18.568026 20.419189
Si 15.187828 20.315857 17.313588
O(c) 20.238381 18.304761 0.864448
O(t) 19.663774 17.140789 21.315071
Li 14.487651 21.145870 1.755789
O(t) 10.222033 17.506641 20.977920
Li 8.473645 17.945392 19.296157
O(t) 10.100330 19.613890 20.199471
Li 14.097678 0.864989 16.046718
O(t) 11.354194 19.295201 21.927372
Li 15.502365 19.267294 0.581446
Si 20.676664 19.968041 0.894467
O(c) 16.063928 21.786087 17.309543
O(t) 13.867112 20.954996 16.500652
Li 7.968667 0.101243 17.048449
O(t) 15.776352 19.989201 15.779288
Li 16.672312 15.536937 15.946547
O(c) 20.129301 21.539067 1.296561
O(t) 20.314730 20.436729 21.530645
Li 19.514540 1.874028 15.119286
O(t) 22.186314 20.627328 1.252271
Li 2.404001 19.051154 1.821123
Si 16.324979 1.235033 16.945066
O(c) 16.026450 2.901233 16.715635
O(t) 17.796717 0.968529 16.209793
Li 17.842150 21.937453 10.187594
O(t) 15.533851 1.566604 18.365447
Li 19.278081 5.063669 20.209080
Si 20.419301 0.875375 1.967182
Si 16.225036 4.536795 17.158498
O(c) 21.570124 2.058420 2.363873
O(t) 19.726871 1.232205 3.454765
Li 20.803221 3.653280 19.073643
O(t) 19.635556 2.156459 1.232528
Li 2.626492 5.696392 18.008619
B 22.080235 3.481629 2.321665
O(c) 16.866395 5.358398 18.494248
O(c) 15.329333 5.969838 16.892739
O(t) 17.410962 5.128659 16.136190
Li 18.513920 6.990489 16.679771
O(t) 21.623579 4.500411 3.306740
Li 20.997278 2.400644 5.184089
O(t) 1.321774 3.721255 2.028153
Li 0.220243 7.774328 20.581764
Si 17.696921 6.712439 19.077485
O(c) 17.981951 6.826983 20.761923
O(t) 16.471526 7.806350 18.736439
Li 13.731682 10.955412 14.070603
O(t) 19.138164 7.553086 18.944415
Li 19.936634 9.084427 20.493576
B 15.248368 7.408255 16.396624
Si 18.987059 7.333167 22.053624
O(c) 13.925075 8.059195 16.058255
O(c) 16.446662 8.011650 15.688247
B 17.571460 7.948322 14.673293
B 12.684423 7.828210 15.220117
O(c) 18.036341 6.612347 1.050288
O(t) 20.536794 6.815956 21.692723
Li 13.713211 5.384582 2.370975
O(t) 19.844309 8.488664 0.737854
Li 12.497560 9.752852 4.094575
O(t) 17.461916 6.967009 13.561145
Li 11.411134 3.348688 10.157163
O(t) 18.504846 9.003659 15.152503
Li 13.472773 6.902693 18.084260
B 17.918309 6.238320 2.512073
O(c) 11.485089 6.901087 15.233814
O(t) 12.844749 8.646028 13.986314
Li 9.836657 9.881361 18.687464
O(c) 16.507767 6.442935 3.043242
O(t) 19.298060 5.708545 2.744183
Li 19.660161 4.477348 0.549161
Si 10.855784 5.353496 15.596744
O(c) 11.063945 3.754908 16.144124
O(t) 10.491453 4.550596 14.173181
Li 6.349291 1.614172 12.299399
O(t) 9.284875 5.821858 15.944901
Li 8.074861 1.311865 13.873790
Si 15.086319 7.378908 3.176002
Si 12.121242 2.547019 16.685462
O(c) 15.716400 8.727929 4.009428
O(c) 13.520392 7.952232 2.853921
O(t) 15.490157 7.824174 1.607342
Li 9.767812 9.397141 0.913511
B 12.055699 7.643842 2.604916
B 15.707932 9.719331 5.166769
O(c) 13.451362 2.801696 17.715662
O(c) 12.576256 2.255458 15.071920
O(t) 11.728943 1.073781 17.368503
Li 11.484334 21.272729 16.277478
O(t) 11.197111 8.866692 2.591408
Li 6.606429 6.937832 20.486101
O(t) 10.997888 6.617882 2.358127
Li 11.853092 8.442875 0.286385
B 12.717605 1.195449 13.988582
Si 14.137487 3.288032 19.191832
O(c) 16.148269 10.497036 6.401354
O(t) 14.344633 10.322978 5.288499
Li 5.564138 5.262479 5.484757
O(c) 12.940713 0.841656 12.524731
O(t) 12.526778 21.968981 14.390798
Li 21.827071 3.261284 11.462660
B 12.652535 1.158260 11.069929
Si 16.970464 11.804917 7.112771
O(c) 13.626562 2.147109 20.339546
O(t) 14.315023 4.951737 19.063817
Li 15.858762 4.750730 1.496528
O(c) 15.709547 3.436510 19.786868
O(t) 11.359156 0.741463 10.461887
Li 12.581440 20.874566 10.111509
O(t) 13.431893 1.998902 10.117684
Li 17.997621 6.493436 10.707709
B 16.646919 3.328163 20.961874
B 13.675588 1.060432 21.385125
O(c) 15.734312 12.972519 7.120692
O(c) 18.469961 11.368410 6.442857
O(t) 17.189511 11.712646 8.770863
Li 19.624056 8.054497 7.352762
O(t) 17.171273 4.519180 21.690947
Li 17.967972 0.203980 2.435486
O(t) 16.689795 2.324995 22.060177
Li 17.584413 1.538627 13.276714
Si 19.634231 10.160656 6.150913
Si 14.805570 14.114630 7.978120
O(c) 15.040366 0.529022 21.006095
O(c) 13.949085 1.410353 0.627321
O(t) 20.909372 10.429830 7.209100
Li 18.007060 13.464764 2.948926
O(t) 20.668661 9.412577 5.061457
Li 14.811069 10.455823 2.842148
O(t) 18.271689 9.338843 5.621828
Li 21.047548 10.215641 2.963272
Si 14.865727 2.244855 1.772379
B 16.094179 0.079952 20.011281
O(c) 15.379841 15.723817 8.105897
O(t) 15.575665 13.493222 9.326888
Li 15.559101 11.498077 10.486622
O(c) 13.241906 13.441774 7.885539
O(t) 15.778414 2.998386 2.945682
Li 8.090682 3.383252 22.126567
O(t) 15.767843 0.833359 1.929704
Li 17.744631 3.312547 1.787561
O(t) 13.423972 3.085178 1.944414
Li 14.352057 1.043069 3.757593
Si 11.572618 13.722587 7.664274
Si 15.128320 17.414835 7.972547
O(c) 15.240917 21.088760 19.586496
O(c) 17.413056 0.685523 19.550663
O(t) 10.169594 14.653504 7.625277
Li 4.630785 13.936877 8.160341
O(t) 10.854506 13.051427 6.301156
Li 9.934550 17.018622 9.339847
O(t) 11.108741 12.993404 9.097732
Li 11.488295 13.873106 11.262196
Si 18.821883 1.561595 19.919602
B 13.843803 20.501363 19.380981
O(c) 15.641246 18.981120 8.471468
O(c) 13.658146 18.259726 7.951515
O(t) 15.980050 17.425980 6.525565
Li 17.374655 13.508875 5.314727
O(t) 19.213870 2.922990 20.809485
Li 20.935191 19.077175 15.874301
O(t) 19.336275 1.570948 18.326694
Li 2.393957 13.724229 14.773421
O(t) 20.376804 1.190310 20.413746
Li 21.463137 13.172610 18.431345
Si 12.376833 18.849188 7.013769
Si 15.324462 20.538678 9.139035
O(c) 12.983757 19.851952 18.291332
O(t) 12.928461 21.301858 20.255952
Li 14.501691 3.752311 22.008265
O(t) 11.314827 18.418516 5.794121
Li 10.859716 18.004301 1.847809
O(c) 11.451372 19.698561 8.135917
O(t) 11.582936 17.569794 7.766275
Li 9.100077 18.782003 5.461858
Si 10.051418 19.623217 9.071315
Si 12.779195 18.616589 17.116211
O(c) 14.775275 21.615209 10.355265
O(t) 14.045045 20.695763 8.068739
Li 8.300265 21.032470 6.277061
O(t) 16.238643 21.840985 8.599134
Li 14.342789 0.821026 8.445273
O(t) 9.123154 19.087548 7.792940
Li 11.747527 18.931058 14.721466
O(c) 9.809351 21.283701 8.868126
O(t) 10.616358 19.434956 10.627904
Li 20.141321 0.605478 9.760005
Si 9.488709 0.339299 7.778621
B 15.095994 0.373471 11.499407
O(c) 13.802303 18.626406 15.755543
O(t) 11.145946 18.981061 17.201737
Li 13.644340 19.918507 13.924519
O(t) 12.234329 17.066956 16.767172
Li 9.085474 19.944396 17.968628
O(c) 7.916982 0.371103 8.395420
O(t) 9.940212 1.642145 8.731111
Li 13.271926 4.289120 8.949291
O(t) 10.491380 21.891229 6.606326
Li 8.022065 7.535166 11.793979
B 7.063742 0.619546 9.609462
Si 14.877983 17.895914 14.660008
O(c) 14.884006 1.744744 12.138868
O(t) 16.482930 22.153191 11.850116
Li 17.621565 15.360025 13.799550
O(t) 7.260911 22.117592 10.907850
Li 9.439160 3.790801 4.904779
O(c) 5.789692 1.382799 9.873431
Si 4.332421 1.458226 10.733629
Si 14.850595 2.772933 13.508159
O(c) 15.906375 18.357525 13.389031
O(c) 14.924074 16.224087 14.343743
O(t) 16.339213 17.697056 15.459169
Li 19.672480 11.041019 15.856275
O(t) 4.840402 0.046319 11.473436
Li 5.190561 19.100288 9.220170
O(t) 3.754840 2.199152 9.350982
Li 9.151893 0.607483 2.294395
O(t) 4.026709 2.524085 11.984733
Li 4.928561 21.743186 8.662601
Si 14.484879 14.624847 14.715060
Si 16.460382 19.466642 12.229651
O(c) 14.473885 3.569615 14.973365
O(t) 16.316707 3.380849 12.977383
Li 19.519988 6.767438 12.212899
O(t) 15.511644 1.563509 14.465194
Li 17.030331 21.687327 14.661243
O(c) 15.782791 13.556167 14.457888
O(t) 13.441550 13.393581 14.262657
Li 9.727102 17.079039 16.273452
O(t) 13.756045 14.634894 16.222522
Li 13.945670 13.486577 18.228270
Si 16.417692 12.071091 13.928159
B 13.628136 4.545606 15.784460
O(c) 17.244172 19.242650 10.737554
O(c) 17.698420 19.822853 13.339607
O(t) 14.873810 19.946489 11.980860
Li 11.626758 21.011809 12.388847
O(t) 16.640231 11.112890 12.565476
Li 15.443517 9.398230 13.699829
O(t) 17.600366 12.995624 13.186660
Li 12.828481 11.839438 10.133879
O(t) 16.573144 10.919923 15.137362
Li 8.014371 12.273821 13.746971
Si 19.179162 20.559562 13.727453
Si 17.890257 18.148127 9.596103
O(c) 12.844565 5.027796 17.000722
O(t) 13.623987 5.659133 14.792418
Li 8.963469 1.611850 10.866546
O(c) 20.591160 19.617744 13.782688
O(t) 19.550591 21.236433 15.212799
Li 16.008316 5.277831 14.382023
O(t) 18.617570 21.833162 12.799961
Li 20.662704 0.423462 16.700338
B 22.082170 19.493678 13.529971
Si 11.402544 5.477733 17.789747
O(c) 19.096009 16.958215 9.380088
O(t) 17.796175 17.809522 7.951638
Li 2.597916 0.014018 8.758684
O(t) 16.466818 17.343617 9.965196
Li 17.313088 15.294734 9.704184
O(t) 0.804480 18.420586 14.010868
Li 0.180945 16.808666 15.876248
O(t) 0.710864 20.701181 13.262061
Li 0.150086 21.188765 15.503600
Si 19.503225 15.459046 8.688939
O(c) 9.872738 4.806768 18.148831
O(t) 11.029395 7.101110 17.640610
Li 11.383443 4.083549 0.913221
O(t) 11.496356 5.805524 19.435293
Li 9.932502 4.583825 20.908221
O(t) 21.085355 15.530859 8.138325
Li 21.814993 16.301601 1.352996
O(t) 19.202494 14.574648 7.298317
Li 17.354942 13.328567 10.873146
O(t) 19.615836 14.163258 9.751553
Li 21.968245 8.310858 6.591755
Si 8.263428 4.451770 17.713080
O(c) 7.576239 2.930327 17.350807
O(c) 7.000054 5.251982 16.895876
O(t) 7.703329 4.978105 19.203044
Li 3.861097 3.427887 0.939745
Si 6.178555 1.955456 17.369027
Si 5.592866 5.128928 15.948372
O(c) 5.096352 2.791333 18.394129
O(t) 6.148904 0.649770 18.425253
Li 8.237435 21.349411 19.550256
O(t) 6.344405 1.355729 15.809775
Li 4.796575 21.682597 16.728683
B 4.563059 2.989491 19.806577
O(c) 4.605247 3.882463 16.536932
O(t) 6.200351 3.910563 14.991443
Li 1.621736 3.500148 13.444149
O(c) 4.076958 5.900157 15.981993
O(t) 4.691445 1.556167 20.212428
Li 2.533184 1.813174 19.161912
O(t) 3.582272 4.107351 19.959974
Li 5.512072 4.357083 3.170081
B 3.551544 2.809405 16.316235
O(t) 3.103852 1.877401 15.240858
Li 2.924516 0.590405 17.075978
O(c) 2.353776 3.213295 17.152683
Si 2.632741 6.400814 15.231870
Si 0.687808 3.482509 17.334758
O(c) 2.217582 6.277265 13.589463
O(c) 2.423603 7.797978 16.171740
O(t) 2.097879 4.840277 15.478499
Li 3.391190 0.508678 13.233639
B 1.651313 8.560736 17.228057
Si 1.100632 6.448871 12.322982
O(c) 0.584681 2.009631 16.434948
O(t) 0.425563 5.123730 17.136501
Li 2.636535 7.867889 19.585211
O(c) 0.966517 3.937829 18.982634
O(t) 2.158464 9.698743 18.052073
Li 21.936944 5.010937 14.819787
O(t) 0.489818 7.968483 17.954248
Li 4.234132 6.308750 20.585959
B 0.950490 4.999183 20.094105
Si 0.302940 1.253812 14.923702
O(c) 0.043333 6.339240 10.992756
O(t) 1.887187 5.167205 11.579807
Li 2.240960 6.534684 9.634978
O(t) 22.022957 7.349222 12.926805
Li 0.372714 8.958924 11.308339
O(t) 1.857599 5.961580 20.814690
Li 4.407867 19.274113 17.888575
O(t) 22.020726 5.092808 21.081021
Li 21.584153 2.941303 22.068104
Si 21.738670 6.929884 9.485666
O(c) 1.187662 1.142371 13.485951
O(t) 21.859456 2.708593 14.440147
Li 19.835921 4.882264 10.611906
O(c) 21.254569 0.678190 13.917527
O(t) 20.093714 7.124279 9.721192
Li 0.392443 4.278328 9.543451
O(t) 21.857242 6.145676 8.013835
Li 14.453865 6.712515 10.247951
O(t) 22.040587 8.521586 9.056466
Li 0.523605 6.424462 5.380120
Si 1.250582 1.385437 11.813805
O(c) 1.995357 22.173128 11.262612
O(t) 1.847421 2.713617 10.987358
Li 2.211416 3.409509 8.263537
O(t) 22.150196 1.176009 10.792170
Li 0.929605 1.664154 8.750096
B 20.744109 0.660420 12.493051
B 2.727417 20.857480 11.427293
O(c) 20.711983 21.501408 11.791863
O(c) 20.057374 2.025379 12.637350
Si 19.853963 3.619213 13.261032
Si 20.113429 19.956433 11.391460
O(c) 3.186810 20.338026 12.779558
O(t) 3.199388 20.125696 10.204017
Li 2.830249 17.817726 8.497576
O(t) 18.527783 4.222118 12.431703
Li 14.800214 7.362409 13.784019
O(t) 20.946694 4.798474 12.775186
Li 16.458623 5.387510 11.879947
O(c) 19.575286 4.464494 14.720608
Si 19.943842 4.676945 16.371368
B 3.130239 20.274249 14.293061
O(c) 19.336628 18.566958 11.980882
O(c) 21.180056 18.949403 10.543053
O(t) 19.392101 20.391433 9.954290
Li 17.666576 20.140745 8.177525
O(t) 19.186805 4.947099 17.843573
Li 17.709224 3.165805 18.427520
O(t) 20.600826 6.212755 16.523309
Li 21.322287 6.157199 18.831021
O(t) 20.516337 3.142287 16.709423
Li 18.583199 0.629838 21.917511
Si 0.189589 18.838080 9.364268
B 18.393944 17.405873 11.739005
O(c) 4.579329 20.612776 14.563166
O(t) 2.514600 21.191782 15.296619
Li 18.373424 17.845345 14.201080
O(c) 1.267263 19.725767 8.416071
O(t) 21.898188 17.728978 8.214193
Li 21.733701 12.890356 7.073266
O(t) 1.226295 17.992046 10.366431
Li 1.158273 15.621585 13.808243
Si 2.030648 19.865791 6.915062
B 5.724069 21.587039 14.374350
O(c) 17.039788 16.799194 12.039078
O(t) 19.492677 16.406109 11.837230
Li 17.935581 9.041376 11.901467
O(t) 1.519714 18.554021 6.006844
Li 2.038998 16.405949 1.863160
O(t) 3.557004 20.040113 7.582945
Li 5.006539 0.191386 4.166908
O(c) 1.785630 21.520609 6.599202
Si 2.255294 0.725503 5.766625
Si 15.550771 16.144590 11.548391
O(c) 6.400720 21.107417 13.111544
O(c) 6.593010 20.837722 15.369917
O(t) 2.483510 0.140913 4.210926
Li 2.316836 19.712495 4.112435
O(t) 3.532434 1.318913 6.662628
Li 2.497011 21.200753 1.122694
O(t) 1.149519 1.876583 6.278710
Li 1.121550 4.059189 5.454789
Si 6.818717 19.500096 16.380236
B 7.561881 20.343095 12.526414
O(c) 14.443941 16.124315 10.237432
O(c) 14.308425 17.106046 12.198130
O(t) 7.631376 18.165371 16.988472
Li 4.231808 16.586627 20.297196
O(t) 5.471034 18.684093 15.824107
Li 3.621728 12.335538 18.772938
O(t) 6.642079 20.395206 17.784824
Li 4.174479 21.786259 19.031643
Si 12.703120 17.186793 12.756538
Si 13.132284 15.425723 9.372530
O(c) 8.561271 20.944177 13.487624
O(t) 7.194605 18.977869 12.050621
Li 4.988744 2.256178 13.999738
O(t) 12.270555 16.566142 14.254309
Li 7.693522 18.480326 14.356269
O(t) 11.343326 16.398884 12.162793
Li 5.498833 16.529930 8.872232
O(t) 12.481324 18.737175 12.164108
Li 9.614449 21.454378 11.258179
Si 9.947210 20.639802 14.412475
O(c) 13.147588 15.788815 7.709625
O(t) 11.508961 15.449121 9.819945
Li 7.191327 14.202818 7.162563
O(t) 13.530086 14.090916 10.303215
Li 19.667674 12.502123 8.007681
O(t) 9.509627 19.606465 15.659611
Li 7.294637 16.193898 15.949490
O(c) 9.511134 22.086012 15.163889
O(t) 10.130218 19.395187 13.308771
Li 9.274428 17.715204 11.661920
Si 13.719099 15.432504 6.147518
O(t) 13.461530 16.817868 5.240096
Li 16.751110 16.193188 4.642687
O(t) 13.180268 13.944852 5.588647
Li 8.917032 13.359508 2.889551
O(t) 15.201783 14.822399 5.646624
Li 20.938146 15.450067 5.742405
B 9.934713 1.280840 15.556456
O(c) 9.542612 1.996633 16.834018
O(c) 10.195452 2.154280 14.349872
Si 9.693469 2.153754 18.528141
O(t) 9.096397 2.115049 20.098834
Li 9.168619 6.881184 19.508769
O(c) 11.102710 2.920229 19.071708
O(t) 9.689269 0.485150 18.415128
Li 11.184121 0.732410 20.125993
Si 11.047921 2.405734 12.902729
B 11.849573 3.509554 20.243493
O(c) 12.392674 3.426765 12.746724
O(c) 9.973080 3.394249 12.081694
O(t) 10.355986 0.896860 12.675842
Li 15.091850 21.647630 13.785889
Si 8.815177 4.596107 12.291642
Si 13.519018 4.343695 11.874503
O(c) 12.473643 4.572840 21.107123
O(t) 11.711370 2.565103 21.397708
Li 13.604680 0.353039 18.384653
O(t) 7.703685 5.266804 11.234755
Li 6.146843 3.539394 10.634116
O(t) 9.842493 5.677615 11.529485
Li 10.554099 8.281908 8.010233
O(t) 7.758653 3.326947 12.584529
Li 9.102360 3.860589 10.052175
Si 13.310027 6.002621 21.321258
O(c) 14.810797 3.838963 10.897198
O(t) 14.226618 5.765550 12.412790
Li 17.499558 3.198618 14.966640
O(t) 12.522762 5.209456 10.843771
Li 20.253555 9.332047 10.654926
O(t) 12.389872 6.224284 0.497593
Li 15.808520 6.072790 20.433193
O(t) 14.666416 6.122011 0.074130
Li 14.609574 9.050665 18.275434
O(c) 13.158892 7.386486 20.381563
Si 16.022228 4.308910 9.805225
O(t) 15.343941 3.623727 8.438612
Li 12.771861 3.238128 4.418471
O(t) 17.651988 4.004770 9.574095
Li 12.104354 0.363784 8.171699
O(t) 16.366305 5.826015 9.182502
Li 20.898693 1.142209 7.490766
Si 12.086627 8.480270 19.680947
O(c) 12.146065 9.211134 18.141107
O(t) 12.697249 9.747940 20.591279
Li 15.129472 8.346770 21.175649
O(t) 10.591784 8.509805 20.439262
Li 9.664684 6.955623 13.765463
B 11.635019 9.509164 16.745916
O(c) 10.301572 9.367771 16.056666
O(t) 12.691609 10.376060 16.170605
Li 11.791751 11.503227 18.605146
B 8.842666 9.739978 15.985674
O(c) 8.422491 10.014805 14.567105
O(t) 7.903022 10.064141 17.084998
Li 13.406934 14.892126 12.361659
Si 7.317336 9.808416 13.329910
O(c) 6.276427 10.992205 12.718194
O(t) 8.386006 9.994327 12.061420
Li 5.253879 8.704722 10.991023
Si 4.809478 11.834499 12.688193
O(c) 5.027962 12.058941 14.362134
O(t) 3.401026 12.717372 12.893131
Li 1.784153 13.476556 11.143573
O(c) 4.406942 11.433534 11.078069
Si 4.511981 12.837969 15.780046
O(c) 4.718257 14.415179 15.204830
O(t) 5.423736 12.287378 17.071084
Li 5.896850 11.092203 19.343503
O(t) 3.358090 11.718958 16.228408
Li 1.735269 10.328485 15.313146
Si 3.228349 11.416537 9.853822
Si 4.255254 15.580236 14.060978
O(c) 1.611085 11.041318 10.197087
O(c) 4.400322 11.162655 8.659782
O(t) 2.545653 12.620744 8.920143
Li 4.320911 13.750643 10.930705
B 5.530414 11.669663 7.804379
Si 0.099911 11.463372 10.848848
O(c) 3.735000 15.471163 12.449432
O(t) 5.651099 16.457550 14.360370
Li 4.972969 18.364596 13.251845
O(t) 3.053971 16.728332 14.272348
Li 2.439853 18.162022 12.252105
O(t) 6.182646 11.721301 6.472964
Li 8.956758 14.018384 9.478381
O(t) 6.577413 12.276494 8.664138
Li 8.759923 7.504680 2.078766
Si 3.132240 16.219143 11.048986
O(c) 21.461093 10.792635 12.171780
O(t) 21.300628 11.168894 9.561961
Li 20.424955 8.525329 17.145111
O(t) 21.598565 12.945265 11.167367
Li 0.162347 13.674908 9.214931
O(t) 4.176355 17.487558 10.708740
Li 9.982287 17.190652 13.946573
O(t) 1.572888 15.772377 11.477200
Li 5.272842 19.968460 11.250797
O(t) 3.372598 15.403913 9.608063
Li 5.990350 16.216223 11.713732
Si 21.428414 10.013461 13.688224
O(c) 21.922636 11.495051 14.437655
O(t) 21.538944 9.398893 15.253340
Li 16.389841 10.919889 17.537872
O(t) 20.173192 9.064878 13.039739
Li 19.288400 11.780994 11.320483
Si 21.674677 13.225723 14.470344
O(c) 0.046591 14.359961 15.588311
O(t) 20.396689 12.833717 13.454413
Li 18.811378 10.970227 13.677261
O(t) 0.726114 13.320123 13.333327
Li 22.127034 17.421059 12.124051
Si 1.007443 14.624375 16.943717
O(c) 0.541123 15.820690 18.007185
O(t) 2.122185 15.707722 16.277294
Li 21.700887 1.531017 18.503404
O(t) 1.544717 13.068164 17.133629
Li 1.102422 19.102524 16.259645
Si 21.700071 16.667226 18.983522
O(c) 21.786958 16.988742 20.642875
O(c) 20.636581 15.824852 17.945103
O(t) 21.546232 17.993879 17.944423
Li 16.869279 21.412473 0.119107
Si 0.302448 17.914782 21.896110
O(t) 1.907503 17.419974 22.122276
Li 3.686579 14.595068 17.951837
O(c) 0.188281 18.407522 1.348679
O(t) 0.891916 19.437508 21.522426
Li 0.019200 21.160283 20.263608
B 20.032025 14.636692 17.218059
Si 21.623414 18.914990 2.822062
O(c) 18.531488 14.603323 17.256689
O(t) 20.464163 13.359688 16.571489
Li 14.609535 16.214155 3.536492
Si 17.033726 14.150863 17.879361
O(c) 20.288603 18.813315 3.923595
O(c) 0.063491 20.081803 3.867170
O(t) 0.641600 17.975116 3.509514
Li 21.298834 18.141086 5.876288
O(t) 15.582508 15.001209 17.925896
Li 10.547399 16.862026 18.650167
O(t) 17.325647 14.631592 19.440503
Li 16.739687 12.003463 21.529337
O(t) 16.340728 13.104220 16.777491
Li 12.116902 12.748064 16.325076
Si 18.722403 19.216946 4.487266
O(c) 17.239048 18.557841 4.039780
O(t) 18.115439 20.770665 4.621967
Li 16.786169 1.102418 4.353127
O(t) 19.080490 19.372677 6.114789
Li 16.619307 19.692122 6.167407
B 22.172239 20.850570 5.155524
B 16.391328 18.077830 2.872766
O(c) 21.441685 20.592468 6.438886
O(t) 22.032251 0.114613 4.917359
Li 16.928013 4.084286 4.622846
B 21.191337 21.001910 7.868393
O(c) 16.736068 16.946103 1.899532
O(t) 15.141565 18.889830 3.055305
Li 9.256836 15.561787 20.575393
O(t) 19.720544 21.254292 7.808740
Li 20.000468 18.815420 8.202309
O(t) 22.110771 21.614788 8.869298
Li 18.963649 16.987775 5.969292
Si 16.815765 16.511925 0.224173
O(c) 15.876903 15.430973 1.176106
O(c) 17.940281 15.882757 21.284194
O(t) 15.343032 17.184718 22.047359
Li 13.044166 15.617398 18.317015
Si 15.422210 13.811638 1.489894
Si 19.229866 14.790261 21.029846
O(c) 13.880682 13.182356 1.043194
O(t) 15.621047 14.181172 3.109766
Li 17.528295 8.773581 2.363149
O(c) 15.925571 12.196145 1.659813
Si 17.177967 11.099975 1.981956
Si 12.972203 11.934155 0.282493
O(c) 20.656689 14.842909 21.985766
O(t) 20.417604 14.784684 19.872717
Li 21.097012 19.150114 19.927191
O(c) 18.968829 13.222899 20.407095
O(t) 16.424685 10.108968 0.858200
Li 17.408311 8.995414 21.290215
O(t) 16.902217 11.320484 3.616657
Li 22.028643 9.712403 19.249735
O(t) 18.804899 10.716443 1.898554
Li 16.679054 12.387321 19.274742
Si 19.237236 12.010082 19.236172
Si 22.148828 14.206912 0.361704
O(c) 11.478855 11.199608 22.118405
O(t) 12.890975 11.335840 1.851126
Li 13.862520 9.413328 0.651763
O(c) 14.230601 11.418408 21.486749
O(t) 20.378096 10.967943 18.573397
Li 0.041492 11.317260 16.832005
O(t) 18.622149 11.991361 17.681724
Li 18.182681 9.489728 17.572015
O(t) 18.360920 10.627267 19.627590
Li 1.228897 11.729832 19.161064
B 14.707001 11.044071 20.114905
B 10.288537 11.002651 21.195036
O(c) 0.806083 12.737895 0.487540
O(t) 0.192935 14.165165 2.019545
Li 0.679559 15.484499 3.926349
O(t) 1.510425 14.825734 0.388033
Li 3.487439 14.427982 21.061025
O(t) 14.216677 11.291113 18.738345
Li 18.470308 13.063864 15.353429
O(t) 15.921780 10.211249 19.936501
Li 11.393377 15.057583 16.081282
Si 1.532710 11.388184 21.979979
O(c) 8.905225 10.381000 21.079852
O(t) 10.161149 12.043299 20.132919
Li 6.955071 13.901409 17.662405
O(t) 1.410360 9.935871 21.146580
Li 1.491374 8.120821 0.697625
O(t) 2.135144 10.687504 1.176352
Li 21.851213 9.962280 0.692295
O(t) 2.692106 12.104747 21.008787
Li 2.188223 13.759289 2.858670
B 8.044708 9.230366 20.591119
O(c) 7.385451 9.067927 19.235907
O(t) 8.304844 8.277496 21.710033
Li 10.184108 6.583325 0.117390
B 6.473719 8.271031 18.329349
O(c) 6.670234 7.710958 16.948902
O(t) 5.094631 7.950382 18.794011
Li 4.509721 9.960488 17.475970
Si 6.103724 7.561770 15.368935
O(c) 5.214536 6.790666 14.137171
O(t) 4.715850 8.043146 16.171462
Li 8.439517 3.693938 14.941022
O(t) 7.686700 7.796126 14.880464
Li 10.607470 9.217535 13.603419
Si 5.108088 6.332633 12.486178
O(c) 3.677418 7.050180 11.944090
O(t) 5.563627 4.726009 12.597847
Li 3.711943 4.376900 13.790842
O(c) 5.637748 6.286587 10.866142
Si 2.637418 8.373780 12.057739
O(t) 2.577635 8.793408 10.440506
Li 1.922370 8.094422 7.692209
O(t) 3.635219 9.678495 12.357637
Li 1.670130 11.177939 12.798048
O(t) 1.786178 8.726812 13.452675
Li 20.098344 6.969989 14.379220
Si 5.597944 5.592479 9.318648
O(c) 4.669914 4.872203 8.104777
O(c) 7.059351 5.145887 8.616118
O(t) 4.430205 6.734591 8.959607
Li 5.934718 9.317809 7.121458
B 3.603339 5.171611 7.074586
O(t) 2.199918 5.665788 7.203031
Li 2.013801 3.358107 21.646730
O(c) 3.548849 3.932409 6.200755
Si 8.107375 4.196785 7.698056
B 3.561657 3.328233 4.806852
O(c) 9.795989 3.926836 7.839469
O(t) 7.428492 2.944827 8.594524
Li 11.248645 20.545442 4.833900
Si 11.241017 3.275767 7.166847
O(c) 4.832863 2.509420 4.621013
O(t) 3.120706 4.267578 3.723193
Li 5.548169 2.073321 7.442844
O(t) 10.981558 2.215394 5.884999
Li 17.245931 21.912409 6.494978
O(c) 12.888216 2.862226 7.363958
O(t) 11.287053 4.618338 6.166270
Li 14.359951 11.061541 8.205791
B 6.193528 2.066735 5.165369
O(t) 7.262004 1.013764 5.267423
Li 9.687461 0.804826 4.698447
O(t) 6.962830 3.350154 5.159464
Li 11.175651 21.675309 21.967271
Si 14.344603 2.414119 6.590554
O(c) 13.349747 1.143524 6.041074
O(c) 15.977574 1.977986 6.864733
O(t) 15.012079 2.816186 5.104423
Li 13.825255 4.818502 6.391301
Si 13.183719 21.856344 5.245043
O(c) 12.118223 0.473184 4.175733
O(t) 13.494109 20.828039 3.966843
Li 14.319304 19.081626 5.557327
O(t) 14.751604 21.677059 5.854044
Li 19.621349 0.120624 5.826299
Si 17.623488 2.374508 7.051631
B 11.913882 1.108742 2.801262
O(c) 19.001866 3.350793 7.265143
O(t) 18.145569 1.346708 8.262259
Li 18.401133 21.619210 17.697723
B 20.284676 3.643618 8.021547
O(c) 11.460466 22.033389 2.122146
O(t) 10.933614 2.233360 2.937218
Li 16.636506 4.775384 6.920117
O(t) 20.259990 2.991661 9.364736
Li 0.308144 7.286393 15.284483
O(t) 21.646378 3.632569 7.400170
Li 0.432284 20.639743 10.963462
B 11.167853 20.556532 2.320895
O(c) 9.889200 20.389926 1.492714
O(t) 12.481208 19.950653 1.948685
Li 12.323667 18.503188 3.934451
Si 8.612027 20.927637 0.454321
O(c) 7.049964 21.304174 1.058056
O(c) 7.862948 19.957485 21.474844
O(t) 8.995832 0.119014 21.810044
Li 4.849504 21.642613 21.836163
Si 5.645763 20.710764 1.837004
O(t) 4.630898 22.042754 1.872991
Li 5.443792 2.167183 22.188849
O(t) 4.545487 20.119029 2.984231
Li 3.225743 1.701173 2.484306
O(t) 6.445655 19.268904 1.480248
Li 4.919000 15.578332 4.205999
B 6.561187 19.444301 20.920165
O(c) 5.579453 18.498410 21.551663
O(t) 5.767454 20.353973 20.057028
Li 6.970063 2.676243 19.713529
Si 4.304002 18.276295 0.438342
O(c) 3.597815 19.614490 21.895458
O(t) 4.385630 17.826424 2.052528
Li 5.449662 18.058847 3.935794
O(c) 4.251907 16.580641 0.340412
B 2.897349 20.103066 20.653348
B 4.898851 15.276678 0.757673
O(c) 2.812423 18.714138 20.056439
O(c) 2.375960 21.522884 20.646187
Si 1.846383 0.682949 21.502179
Si 1.878721 17.416381 19.486201
O(c) 5.767579 14.819275 21.807136
O(t) 4.130413 14.977620 1.997657
Li 3.874077 20.763706 5.324603
O(t) 1.343611 1.228629 0.796165
Li 0.654417 22.159804 2.706622
O(t) 0.786152 1.527309 20.523941
Li 5.285909 5.525699 18.481723
O(t) 3.361899 1.161935 22.012556
Li 2.445416 5.754300 1.209729
Si 6.265457 15.070398 20.205723
O(c) 1.303395 18.672743 18.500647
O(c) 1.705342 15.896819 20.228497
O(t) 3.115146 17.112057 18.394309
Li 3.122553 18.222153 16.039342
O(t) 5.617996 13.563131 19.867138
Li 3.696688 10.180385 20.007787
O(t) 7.010432 16.531693 20.551756
Li 5.995168 18.098934 18.882867
O(t) 5.872583 15.703275 18.702657
Li 4.713113 16.510264 16.706152
Si 1.012931 20.335324 18.317795
O(t) 2.592934 20.487586 17.782790
Li 21.566654 0.332199 22.052693
O(t) 1.139829 22.011077 18.299678
Li 20.359549 21.223801 3.760200
O(t) 21.687037 20.622558 17.692788
Li 17.179134 20.065001 18.539115
B 0.927457 14.580427 20.295147
O(c) 0.043313 13.363243 20.614993
O(t) 1.899641 13.888208 19.382536
Li 3.280105 13.019691 0.839326
B 21.195656 12.476673 21.299975
O(c) 20.604906 12.457922 0.515221
O(t) 21.271412 11.023087 20.949568
Li 19.083835 11.538227 4.131707
B 20.132222 13.227596 1.749563
O(c) 20.710439 12.736980 3.058622
O(c) 20.263709 14.702685 2.146722
Si 21.307941 13.231393 4.564328
O(t) 21.381195 11.634429 5.061517
Li 21.461851 7.332768 3.155376
O(t) 19.799435 13.535874 5.222888
Li 21.522032 15.701940 10.511712
O(t) 0.715555 13.470920 4.970497
Li 0.795420 16.442614 6.500156
Si 19.682653 16.153272 2.841244
O(c) 18.766451 17.589594 2.731091
O(t) 20.988905 16.613923 3.774341
Li 19.262508 3.548245 3.737591
O(t) 18.763317 15.407250 4.025459
Li 15.941192 20.962450 3.902749
Si 18.130286 18.919205 1.859351
O(c) 17.845345 18.657804 0.207932
O(t) 18.996322 20.201359 2.480981
Li 13.571189 20.192225 22.034274
O(t) 16.957779 20.121646 1.981523
Li 12.741467 17.226032 21.796852
Si 17.964000 19.152437 20.789944
O(c) 18.951307 18.651774 19.493241
O(t) 18.281527 20.779728 20.549080
Li 11.202920 21.030379 18.792021
O(t) 16.346806 19.585231 20.727122
Li 16.785756 17.384565 19.839016
Si 19.046097 18.108229 17.879554
O(c) 19.100235 17.230307 16.424846
O(t) 19.642004 19.627418 17.517632
Li 18.701452 16.337353 19.135457
O(t) 17.387466 17.913409 17.741561
Li 18.292993 2.171970 10.827716
B 19.899806 16.659808 15.270622
O(t) 15.828023 14.688267 12.326747
Li 17.251154 15.503426 6.955327
O(t) 6.220147 8.596317 12.998710
Li 7.472495 5.690154 13.736989
O(t) 7.781886 5.142235 6.346668
Li 8.513018 2.133887 6.626981
O(t) 18.353821 2.045835 5.577681
Li 20.793242 4.848388 5.585155
O(t) 19.624018 15.255416 14.859890
Li 21.167221 15.050480 13.011853
O(t) 20.763388 17.201205 14.178757
Li 17.993773 19.519231 15.873926
